<?xml version="1.0" encoding="UTF-8"?>

<!-- generated on 2025-09-06 16:41:14.745127 by osmWebWizard.py v1_24_0+0000-b72eb3fabc8
<configuration>
    <net-file value="C:\Users\dudde\2025-09-06-16-37-48\osm.net.xml.gz"/>
    <output-trip-file value="C:\Users\dudde\2025-09-06-16-37-48\osm.passenger.trips.xml"/>
    <route-file value="C:\Users\dudde\2025-09-06-16-37-48\osm.passenger.rou.xml"/>
    <prefix value="veh"/>
    <trip-attributes value="departLane=&quot;best&quot;"/>
    <fringe-start-attributes value="departSpeed=&quot;max&quot;"/>
    <vehicle-class value="passenger"/>
    <lanes value="True"/>
    <fringe-factor value="5"/>
    <allow-fringe.min-length value="1000.0"/>
    <edge-permission value="passenger"/>
    <via-edge-types value="highway.motorway,highway.motorway_link,highway.trunk_link,highway.primary_link,highway.secondary_link,highway.tertiary_link"/>
    <min-distance value="300.0"/>
    <min-distance.fringe value="10.0"/>
    <remove-loops value="True"/>
    <insertion-density value="12.0"/>
</configuration>
-->

<routes xmlns:xsi="http://www.w3.org/2001/XMLSchema-instance" xsi:noNamespaceSchemaLocation="http://sumo.dlr.de/xsd/routes_file.xsd">
    <vType id="veh_passenger" vClass="passenger"/>
    <trip id="veh0" depart="0.00" from="639551506" to="-632061571" departLane="best" type="veh_passenger"/>
    <trip id="veh1" depart="0.39" from="251582038" to="175959438#3" departLane="best" type="veh_passenger"/>
    <trip id="veh2" depart="0.78" from="646279827#1" to="642160475#1" departLane="best" type="veh_passenger"/>
    <trip id="veh3" depart="1.17" from="722004360" to="-646678652" departLane="best" type="veh_passenger"/>
    <trip id="veh4" depart="1.56" from="529549237#0" to="-634931134#1" departLane="best" type="veh_passenger"/>
    <trip id="veh5" depart="1.95" from="175014490" to="631770165#1" departLane="best" type="veh_passenger"/>
    <trip id="veh6" depart="2.33" from="639900469" to="632786478#3" departLane="best" type="veh_passenger"/>
    <trip id="veh7" depart="2.72" from="175014498#0" to="635393381" departLane="best" type="veh_passenger"/>
    <trip id="veh8" depart="3.11" from="655534927" to="-176204391#2" departLane="best" type="veh_passenger"/>
    <trip id="veh9" depart="3.50" from="655510551" to="644417755" departLane="best" type="veh_passenger"/>
    <trip id="veh10" depart="3.89" from="754510801#0" to="479803902#0" departLane="best" type="veh_passenger"/>
    <trip id="veh11" depart="4.28" from="-646678652" to="-664037888" departLane="best" type="veh_passenger"/>
    <trip id="veh12" depart="4.67" from="692680064" to="635691786#0" departLane="best" type="veh_passenger"/>
    <trip id="veh13" depart="5.06" from="655527052#1" to="646230288" departLane="best" type="veh_passenger"/>
    <trip id="veh14" depart="5.45" from="482071861" to="633310620#0" departLane="best" type="veh_passenger"/>
    <trip id="veh15" depart="5.84" from="664357669#1" to="636841218#0" departLane="best" type="veh_passenger"/>
    <trip id="veh16" depart="6.23" from="70585703" to="635301447" departLane="best" type="veh_passenger"/>
    <trip id="veh17" depart="6.61" from="175959438#1" to="313940708" departLane="best" type="veh_passenger"/>
    <trip id="veh18" depart="7.00" from="-646258559" to="223860418#0" departLane="best" type="veh_passenger"/>
    <trip id="veh19" depart="7.39" from="-647104089#1" to="251582098" departLane="best" type="veh_passenger"/>
    <trip id="veh20" depart="7.78" from="639124587" to="482047360#0" departLane="best" type="veh_passenger"/>
    <trip id="veh21" depart="8.17" from="482050571#1" to="173896212#5" departLane="best" type="veh_passenger"/>
    <trip id="veh22" depart="8.56" from="251581977" to="74798117#3" departLane="best" type="veh_passenger"/>
    <trip id="veh23" depart="8.95" from="639865230#0" to="635750141#0" departLane="best" type="veh_passenger"/>
    <trip id="veh24" depart="9.34" from="1209379213" to="646229437" departLane="best" type="veh_passenger"/>
    <trip id="veh25" depart="9.73" from="1183482545" to="482080587#0" departLane="best" type="veh_passenger"/>
    <trip id="veh26" depart="10.12" from="826324588" to="639642927#0" departLane="best" type="veh_passenger"/>
    <trip id="veh27" depart="10.51" from="672304902" to="651865835" departLane="best" type="veh_passenger"/>
    <trip id="veh28" depart="10.89" from="175959488#1" to="-635524605#0" departLane="best" type="veh_passenger"/>
    <trip id="veh29" depart="11.28" from="465452704" to="251582030" departLane="best" type="veh_passenger"/>
    <trip id="veh30" depart="11.67" from="173896173" to="749661594#1" departLane="best" type="veh_passenger"/>
    <trip id="veh31" depart="12.06" from="710052107" to="465523228#1" departLane="best" type="veh_passenger"/>
    <trip id="veh32" depart="12.45" from="640014563#0" to="482270668#1" departLane="best" type="veh_passenger"/>
    <trip id="veh33" depart="12.84" from="736403522" to="539643356#2" departLane="best" type="veh_passenger"/>
    <trip id="veh34" depart="13.23" from="234962154" to="22886352" departLane="best" type="veh_passenger"/>
    <trip id="veh35" depart="13.62" from="633571299" to="251581991#0" departLane="best" type="veh_passenger"/>
    <trip id="veh36" depart="14.01" from="635327620#1" to="724472288" departLane="best" type="veh_passenger"/>
    <trip id="veh37" depart="14.40" from="482270668#1" to="175847336" departLane="best" type="veh_passenger"/>
    <trip id="veh38" depart="14.79" from="-646663523" to="-643744747#1" departLane="best" type="veh_passenger"/>
    <trip id="veh39" depart="15.17" from="-664327348" to="637943377" departLane="best" type="veh_passenger"/>
    <trip id="veh40" depart="15.56" from="654874184#0" to="535317691" departLane="best" type="veh_passenger"/>
    <trip id="veh41" depart="15.95" from="-645163746" to="482086716#1" departLane="best" type="veh_passenger"/>
    <trip id="veh42" depart="16.34" from="776142611" to="703938933#0" departLane="best" type="veh_passenger"/>
    <trip id="veh43" depart="16.73" from="-22885489" to="646147381" departLane="best" type="veh_passenger"/>
    <trip id="veh44" depart="17.12" from="642560964#1" to="632716926" departLane="best" type="veh_passenger"/>
    <trip id="veh45" depart="17.51" from="251581975#2" to="639683021" departLane="best" type="veh_passenger"/>
    <trip id="veh46" depart="17.90" from="-664337555" to="537757454#1" departLane="best" type="veh_passenger"/>
    <trip id="veh47" depart="18.29" from="539519074" to="75423579#1" departLane="best" type="veh_passenger"/>
    <trip id="veh48" depart="18.68" from="710048287" to="251581993" departLane="best" type="veh_passenger"/>
    <trip id="veh49" depart="19.07" from="631541666" to="1378942406#0" departLane="best" type="veh_passenger"/>
    <trip id="veh50" depart="19.45" from="727750107#1" to="709857773#1" departLane="best" type="veh_passenger"/>
    <trip id="veh51" depart="19.84" from="325024341#0" to="639595021" departLane="best" type="veh_passenger"/>
    <trip id="veh52" depart="20.23" from="647087594#1" to="632727858" departLane="best" type="veh_passenger"/>
    <trip id="veh53" depart="20.62" from="651095493#1" to="632441012" departLane="best" type="veh_passenger"/>
    <trip id="veh54" depart="21.01" from="-104127527#0" to="479344337" departLane="best" type="veh_passenger"/>
    <trip id="veh55" depart="21.40" from="-465276774" to="747286657" departLane="best" type="veh_passenger"/>
    <trip id="veh56" depart="21.79" from="710449768" to="668611373#0" departLane="best" type="veh_passenger"/>
    <trip id="veh57" depart="22.18" from="710449765#1" to="75237305#1" departLane="best" type="veh_passenger"/>
    <trip id="veh58" depart="22.57" from="-646461497" to="617971396#1" departLane="best" type="veh_passenger"/>
    <trip id="veh59" depart="22.96" from="-645360846#0" to="647083416#1" departLane="best" type="veh_passenger"/>
    <trip id="veh60" depart="23.35" from="647822117" to="-737180255#3" departLane="best" type="veh_passenger"/>
    <trip id="veh61" depart="23.73" from="541137551" to="633247277" departLane="best" type="veh_passenger"/>
    <trip id="veh62" depart="24.12" from="234962156#1" to="709881789" departLane="best" type="veh_passenger"/>
    <trip id="veh63" depart="24.51" from="529888768#0" to="173896229#1" departLane="best" type="veh_passenger"/>
    <trip id="veh64" depart="24.90" from="632703919" to="646230289" departLane="best" type="veh_passenger"/>
    <trip id="veh65" depart="25.29" from="173767670" to="465452699" departLane="best" type="veh_passenger"/>
    <trip id="veh66" depart="25.68" from="882665721#1-AddedOnRampEdge" to="639971225" departLane="best" type="veh_passenger"/>
    <trip id="veh67" depart="26.07" from="537757456" to="632350619" departLane="best" type="veh_passenger" departSpeed="max"/>
    <trip id="veh68" depart="26.46" from="479756051#1" to="635391593#0" departLane="best" type="veh_passenger"/>
    <trip id="veh69" depart="26.85" from="176174487#0" to="175878987" departLane="best" type="veh_passenger"/>
    <trip id="veh70" depart="27.24" from="175959488#1" to="726929302" departLane="best" type="veh_passenger"/>
    <trip id="veh71" depart="27.63" from="701832753" to="-646215166" departLane="best" type="veh_passenger"/>
    <trip id="veh72" depart="28.01" from="223860389" to="641449393#0" departLane="best" type="veh_passenger"/>
    <trip id="veh73" depart="28.40" from="173896212#5" to="-754522935#1" departLane="best" type="veh_passenger"/>
    <trip id="veh74" depart="28.79" from="747390002" to="634931130#0" departLane="best" type="veh_passenger"/>
    <trip id="veh75" depart="29.18" from="540472415#0" to="652553354" departLane="best" type="veh_passenger"/>
    <trip id="veh76" depart="29.57" from="655529245#1" to="15772715" departLane="best" type="veh_passenger"/>
    <trip id="veh77" depart="29.96" from="-646834014" to="537120331" departLane="best" type="veh_passenger"/>
    <trip id="veh78" depart="30.35" from="529888777#1" to="539771062#2" departLane="best" type="veh_passenger"/>
    <trip id="veh79" depart="30.74" from="822485836#1" to="-664037900" departLane="best" type="veh_passenger"/>
    <trip id="veh80" depart="31.13" from="482519378#1" to="480884477" departLane="best" type="veh_passenger"/>
    <trip id="veh81" depart="31.52" from="70585703" to="22886848#0" departLane="best" type="veh_passenger"/>
    <trip id="veh82" depart="31.91" from="529549236#1" to="251582102#1" departLane="best" type="veh_passenger"/>
    <trip id="veh83" depart="32.29" from="22885700#1" to="744583775" departLane="best" type="veh_passenger"/>
    <trip id="veh84" depart="32.68" from="539265993#0" to="70585703" departLane="best" type="veh_passenger"/>
    <trip id="veh85" depart="33.07" from="632890965" to="-644262818" departLane="best" type="veh_passenger"/>
    <trip id="veh86" depart="33.46" from="98284572#1" to="669061276#1" departLane="best" type="veh_passenger"/>
    <trip id="veh87" depart="33.85" from="765203692" to="746626789" departLane="best" type="veh_passenger"/>
    <trip id="veh88" depart="34.24" from="695535120#1" to="1219971638#1" departLane="best" type="veh_passenger"/>
    <trip id="veh89" depart="34.63" from="617923186#0" to="175014490" departLane="best" type="veh_passenger"/>
    <trip id="veh90" depart="35.02" from="482514847#0" to="-645165791" departLane="best" type="veh_passenger"/>
    <trip id="veh91" depart="35.41" from="482071862" to="823169627" departLane="best" type="veh_passenger"/>
    <trip id="veh92" depart="35.80" from="234962156#2" to="652552330#1" departLane="best" type="veh_passenger"/>
    <trip id="veh93" depart="36.18" from="539523498#1" to="536655845" departLane="best" type="veh_passenger"/>
    <trip id="veh94" depart="36.57" from="754510801#0" to="882665724#0-AddedOnRampEdge" departLane="best" type="veh_passenger"/>
    <trip id="veh95" depart="36.96" from="633299799#0" to="645383960" departLane="best" type="veh_passenger"/>
    <trip id="veh96" depart="37.35" from="1077945443#0" to="383209581#1" departLane="best" type="veh_passenger"/>
    <trip id="veh97" depart="37.74" from="761129507" to="635307355" departLane="best" type="veh_passenger"/>
    <trip id="veh98" depart="38.13" from="632723089" to="646670735" departLane="best" type="veh_passenger"/>
    <trip id="veh99" depart="38.52" from="-644275180" to="635370012#0" departLane="best" type="veh_passenger"/>
    <trip id="veh100" depart="38.91" from="1124474511#0" to="754781287" departLane="best" type="veh_passenger"/>
    <trip id="veh101" depart="39.30" from="-646265600" to="1421511620" departLane="best" type="veh_passenger"/>
    <trip id="veh102" depart="39.69" from="190535811#1" to="-701832757#0" departLane="best" type="veh_passenger"/>
    <trip id="veh103" depart="40.08" from="721886563#0" to="22886348#1" departLane="best" type="veh_passenger"/>
    <trip id="veh104" depart="40.46" from="635498514" to="636846743" departLane="best" type="veh_passenger"/>
    <trip id="veh105" depart="40.85" from="515740371" to="635362838#0" departLane="best" type="veh_passenger"/>
    <trip id="veh106" depart="41.24" from="632363045" to="747777158#3" departLane="best" type="veh_passenger"/>
    <trip id="veh107" depart="41.63" from="173767742" to="645326996" departLane="best" type="veh_passenger"/>
    <trip id="veh108" depart="42.02" from="223860419#1" to="482270668#1" departLane="best" type="veh_passenger"/>
    <trip id="veh109" depart="42.41" from="641546938" to="383249803#0" departLane="best" type="veh_passenger"/>
    <trip id="veh110" depart="42.80" from="465460545#1" to="646733281" departLane="best" type="veh_passenger"/>
    <trip id="veh111" depart="43.19" from="-646154386" to="539643355" departLane="best" type="veh_passenger"/>
    <trip id="veh112" depart="43.58" from="97638568#1" to="889476177" departLane="best" type="veh_passenger"/>
    <trip id="veh113" depart="43.97" from="-646176440" to="173896245" departLane="best" type="veh_passenger"/>
    <trip id="veh114" depart="44.36" from="234962156#2" to="747480647" departLane="best" type="veh_passenger"/>
    <trip id="veh115" depart="44.74" from="710851872#1" to="710884006" departLane="best" type="veh_passenger"/>
    <trip id="veh116" depart="45.13" from="482047471" to="1183482565#0" departLane="best" type="veh_passenger"/>
    <trip id="veh117" depart="45.52" from="667464241" to="644987918#1" departLane="best" type="veh_passenger"/>
    <trip id="veh118" depart="45.91" from="635750141#0" to="824070958" departLane="best" type="veh_passenger"/>
    <trip id="veh119" depart="46.30" from="656456695" to="383249801#1" departLane="best" type="veh_passenger"/>
    <trip id="veh120" depart="46.69" from="641063776#1" to="74860024" departLane="best" type="veh_passenger"/>
    <trip id="veh121" depart="47.08" from="-736527536#0" to="-681045663" departLane="best" type="veh_passenger"/>
    <trip id="veh122" depart="47.47" from="-664064801#0" to="633556432" departLane="best" type="veh_passenger"/>
    <trip id="veh123" depart="47.86" from="251582024#0" to="635720427#1" departLane="best" type="veh_passenger"/>
    <trip id="veh124" depart="48.25" from="645324783" to="173767942" departLane="best" type="veh_passenger"/>
    <trip id="veh125" depart="48.64" from="639007358#0" to="251582005#1" departLane="best" type="veh_passenger"/>
    <trip id="veh126" depart="49.02" from="681127131" to="-646844491#1" departLane="best" type="veh_passenger"/>
    <trip id="veh127" depart="49.41" from="529888777#1" to="251582089#0" departLane="best" type="veh_passenger"/>
    <trip id="veh128" depart="49.80" from="-115096959#1" to="649784399" departLane="best" type="veh_passenger" departSpeed="max"/>
    <trip id="veh129" depart="50.19" from="639325874" to="251581978#0" departLane="best" type="veh_passenger"/>
    <trip id="veh130" depart="50.58" from="646461503" to="633299799#0" departLane="best" type="veh_passenger"/>
    <trip id="veh131" depart="50.97" from="536655847#0" to="-22885890" departLane="best" type="veh_passenger"/>
    <trip id="veh132" depart="51.36" from="-646197909" to="711671820" departLane="best" type="veh_passenger"/>
    <trip id="veh133" depart="51.75" from="725914535" to="632803105#1" departLane="best" type="veh_passenger"/>
    <trip id="veh134" depart="52.14" from="100575025#0" to="-736527535" departLane="best" type="veh_passenger"/>
    <trip id="veh135" depart="52.53" from="391435866#0" to="724474099#1" departLane="best" type="veh_passenger"/>
    <trip id="veh136" depart="52.92" from="654983782#0" to="703938933#0" departLane="best" type="veh_passenger"/>
    <trip id="veh137" depart="53.30" from="724320981#0" to="173896212#9" departLane="best" type="veh_passenger" departSpeed="max"/>
    <trip id="veh138" depart="53.69" from="22885696" to="-664336092" departLane="best" type="veh_passenger"/>
    <trip id="veh139" depart="54.08" from="651967129" to="711816247#1" departLane="best" type="veh_passenger"/>
    <trip id="veh140" depart="54.47" from="482531034#0" to="636854590" departLane="best" type="veh_passenger"/>
    <trip id="veh141" depart="54.86" from="1077945440#4" to="747389990#1" departLane="best" type="veh_passenger"/>
    <trip id="veh142" depart="55.25" from="709124946" to="792746485" departLane="best" type="veh_passenger"/>
    <trip id="veh143" depart="55.64" from="655627860" to="711668527#0" departLane="best" type="veh_passenger"/>
    <trip id="veh144" depart="56.03" from="-539418279#1" to="646352639" departLane="best" type="veh_passenger"/>
    <trip id="veh145" depart="56.42" from="479381302" to="747389999#1" departLane="best" type="veh_passenger"/>
    <trip id="veh146" depart="56.81" from="655143167" to="709124945" departLane="best" type="veh_passenger"/>
    <trip id="veh147" depart="57.20" from="655627860" to="251582022#1" departLane="best" type="veh_passenger"/>
    <trip id="veh148" depart="57.58" from="652556632" to="-664961871#0" departLane="best" type="veh_passenger"/>
    <trip id="veh149" depart="57.97" from="709857773#1" to="701308748#0" departLane="best" type="veh_passenger"/>
    <trip id="veh150" depart="58.36" from="175845927" to="656456704" departLane="best" type="veh_passenger" departSpeed="max"/>
    <!--<trip id="veh151" depart="58.75" from="539582258" to="445282930#0" departLane="best" type="veh_passenger"/>
    <trip id="veh152" depart="59.14" from="654886018" to="176204398#1" departLane="best" type="veh_passenger"/>
    <trip id="veh153" depart="59.53" from="-503948418#3" to="163766422" departLane="best" type="veh_passenger"/>
    <trip id="veh154" depart="59.92" from="479365900#0" to="709124946" departLane="best" type="veh_passenger"/>
    <trip id="veh155" depart="60.31" from="755100185#0" to="251582107#0" departLane="best" type="veh_passenger"/>
    <trip id="veh156" depart="60.70" from="639595022" to="482522723#0" departLane="best" type="veh_passenger"/>
    <trip id="veh157" depart="61.09" from="799755578#1" to="632710849" departLane="best" type="veh_passenger"/>
    <trip id="veh158" depart="61.48" from="74798117#0" to="-681045662#0" departLane="best" type="veh_passenger"/>
    <trip id="veh159" depart="61.86" from="768005074#0" to="1378942406#0" departLane="best" type="veh_passenger"/>
    <trip id="veh160" depart="62.25" from="754809402#0" to="251582019" departLane="best" type="veh_passenger"/>
    <trip id="veh161" depart="62.64" from="-664309689#1" to="537757453" departLane="best" type="veh_passenger"/>
    <trip id="veh162" depart="63.03" from="646203543" to="465490248" departLane="best" type="veh_passenger"/>
    <trip id="veh163" depart="63.42" from="635691786#0" to="632077981" departLane="best" type="veh_passenger"/>
    <trip id="veh164" depart="63.81" from="482086716#1" to="635295277#0" departLane="best" type="veh_passenger"/>
    <trip id="veh165" depart="64.20" from="22887331#1" to="645165792" departLane="best" type="veh_passenger"/>
    <trip id="veh166" depart="64.59" from="-113101744#0" to="74592172#1" departLane="best" type="veh_passenger"/>
    <trip id="veh167" depart="64.98" from="632695039" to="646131898#0" departLane="best" type="veh_passenger"/>
    <trip id="veh168" depart="65.37" from="646463296#1" to="641559970#0" departLane="best" type="veh_passenger"/>
    <trip id="veh169" depart="65.76" from="482046823" to="-646201676" departLane="best" type="veh_passenger" departSpeed="max"/>
    <trip id="veh170" depart="66.14" from="641064081#0" to="479741892" departLane="best" type="veh_passenger"/>
    <trip id="veh171" depart="66.53" from="645371981" to="383286530#1" departLane="best" type="veh_passenger"/>
    <trip id="veh172" depart="66.92" from="426826458" to="512870336" departLane="best" type="veh_passenger"/>
    <trip id="veh173" depart="67.31" from="482519377#1" to="380710424#1" departLane="best" type="veh_passenger"/>
    <trip id="veh174" depart="67.70" from="-703938932" to="530063732#0" departLane="best" type="veh_passenger"/>
    <trip id="veh175" depart="68.09" from="74798139" to="642176965" departLane="best" type="veh_passenger" departSpeed="max"/>
    <trip id="veh176" depart="68.48" from="725914507" to="636825393#0" departLane="best" type="veh_passenger"/>
    <trip id="veh177" depart="68.87" from="383209581#0" to="633051551" departLane="best" type="veh_passenger"/>
    <trip id="veh178" depart="69.26" from="-100575780" to="265150810#4" departLane="best" type="veh_passenger" departSpeed="max"/>
    <trip id="veh179" depart="69.65" from="536655908" to="635322518#0" departLane="best" type="veh_passenger"/>
    <trip id="veh180" depart="70.04" from="640005969#1" to="539770676#1" departLane="best" type="veh_passenger"/>
    <trip id="veh181" depart="70.42" from="538810643" to="175014490" departLane="best" type="veh_passenger"/>
    <trip id="veh182" depart="70.81" from="540472415#1" to="725914511" departLane="best" type="veh_passenger"/>
    <trip id="veh183" depart="71.20" from="654980887" to="1279005749#1" departLane="best" type="veh_passenger"/>
    <trip id="veh184" depart="71.59" from="-646376137#1" to="632116857" departLane="best" type="veh_passenger"/>
    <trip id="veh185" depart="71.98" from="638457914#1" to="479772119" departLane="best" type="veh_passenger"/>
    <trip id="veh186" depart="72.37" from="656456706" to="646715435" departLane="best" type="veh_passenger"/>
    <trip id="veh187" depart="72.76" from="641559970#0-AddedOffRampEdge" to="175959491#2" departLane="best" type="veh_passenger"/>
    <trip id="veh188" depart="73.15" from="173767613" to="-631527999" departLane="best" type="veh_passenger"/>
    <trip id="veh189" depart="73.54" from="22752251#1" to="542142414#1" departLane="best" type="veh_passenger"/>
    <trip id="veh190" depart="73.93" from="696923532#1" to="-646229439" departLane="best" type="veh_passenger"/>
    <trip id="veh191" depart="74.32" from="512870458" to="638455520" departLane="best" type="veh_passenger"/>
    <trip id="veh192" depart="74.70" from="146665363#1" to="644391355#0" departLane="best" type="veh_passenger"/>
    <trip id="veh193" depart="75.09" from="631476814" to="22885694" departLane="best" type="veh_passenger"/>
    <trip id="veh194" depart="75.48" from="640024805#2" to="-173896216" departLane="best" type="veh_passenger"/>
    <trip id="veh195" depart="75.87" from="646672216#0" to="649370259" departLane="best" type="veh_passenger"/>
    <trip id="veh196" depart="76.26" from="-664050973#1" to="536655883#2" departLane="best" type="veh_passenger"/>
    <trip id="veh197" depart="76.65" from="1276426074#0" to="754732274#1" departLane="best" type="veh_passenger"/>
    <trip id="veh198" depart="77.04" from="632097389#0" to="-644170937#1" departLane="best" type="veh_passenger"/>
    <trip id="veh199" depart="77.43" from="22885693" to="696923532#0" departLane="best" type="veh_passenger"/>
    <trip id="veh200" depart="77.82" from="539535924#1" to="655224860#0" departLane="best" type="veh_passenger"/>
    <trip id="veh201" depart="78.21" from="641096878#1" to="824497092" departLane="best" type="veh_passenger"/>
    <trip id="veh202" depart="78.60" from="635524069#0" to="75338382#3" departLane="best" type="veh_passenger"/>
    <trip id="veh203" depart="78.98" from="721886566#0" to="636806237#1" departLane="best" type="veh_passenger"/>
    <trip id="veh204" depart="79.37" from="645359194" to="631555769" departLane="best" type="veh_passenger"/>
    <trip id="veh205" depart="79.76" from="664991645" to="633051551" departLane="best" type="veh_passenger"/>
    <trip id="veh206" depart="80.15" from="723723120#2" to="646650159" departLane="best" type="veh_passenger"/>
    <trip id="veh207" depart="80.54" from="541130678" to="234962153" departLane="best" type="veh_passenger"/>
    <trip id="veh208" depart="80.93" from="22885269#1" to="639551512" departLane="best" type="veh_passenger"/>
    <trip id="veh209" depart="81.32" from="647822117" to="632376522#1" departLane="best" type="veh_passenger"/>
    <trip id="veh210" depart="81.71" from="636912115" to="251582075#2" departLane="best" type="veh_passenger"/>
    <trip id="veh211" depart="82.10" from="251582021#1" to="479326464" departLane="best" type="veh_passenger"/>
    <trip id="veh212" depart="82.49" from="632710849" to="-823170687" departLane="best" type="veh_passenger"/>
    <trip id="veh213" depart="82.88" from="176204385" to="644271930#1" departLane="best" type="veh_passenger"/>
    <trip id="veh214" depart="83.26" from="644987916" to="-645372831" departLane="best" type="veh_passenger"/>
    <trip id="veh215" depart="83.65" from="493838353" to="632737520#1" departLane="best" type="veh_passenger"/>
    <trip id="veh216" depart="84.04" from="512870465#1" to="173896183#0" departLane="best" type="veh_passenger"/>
    <trip id="veh217" depart="84.43" from="526345585#0" to="726848066#1" departLane="best" type="veh_passenger"/>
    <trip id="veh218" depart="84.82" from="635327430#0" to="644352005" departLane="best" type="veh_passenger"/>
    <trip id="veh219" depart="85.21" from="701146101" to="647824074" departLane="best" type="veh_passenger"/>
    <trip id="veh220" depart="85.60" from="482073399" to="-176204390#0" departLane="best" type="veh_passenger"/>
    <trip id="veh221" depart="85.99" from="481621522#1" to="646810203#1" departLane="best" type="veh_passenger"/>
    <trip id="veh222" depart="86.38" from="699864165" to="75423571#1" departLane="best" type="veh_passenger"/>
    <trip id="veh223" depart="86.77" from="515740370" to="646668518" departLane="best" type="veh_passenger"/>
    <trip id="veh224" depart="87.16" from="632737517#0" to="635691631#0" departLane="best" type="veh_passenger"/>
    <trip id="veh225" depart="87.54" from="175014498#1" to="175847336" departLane="best" type="veh_passenger"/>
    <trip id="veh226" depart="87.93" from="537148259" to="-633612515" departLane="best" type="veh_passenger"/>
    <trip id="veh227" depart="88.32" from="479742395#0" to="642661633" departLane="best" type="veh_passenger"/>
    <trip id="veh228" depart="88.71" from="482522730#2" to="1210473319#0" departLane="best" type="veh_passenger"/>
    <trip id="veh229" depart="89.10" from="539770662" to="-736727134" departLane="best" type="veh_passenger"/>
    <trip id="veh230" depart="89.49" from="636850502" to="-632728580" departLane="best" type="veh_passenger"/>
    <trip id="veh231" depart="89.88" from="482089870" to="633824722" departLane="best" type="veh_passenger"/>
    <trip id="veh232" depart="90.27" from="-544650072#0" to="639749475" departLane="best" type="veh_passenger"/>
    <trip id="veh233" depart="90.66" from="-744907216" to="539746737#12" departLane="best" type="veh_passenger"/>
    <trip id="veh234" depart="91.05" from="-643394169" to="482080585" departLane="best" type="veh_passenger"/>
    <trip id="veh235" depart="91.44" from="173896183#0" to="479370446" departLane="best" type="veh_passenger"/>
    <trip id="veh236" depart="91.82" from="647083416#1" to="482080585" departLane="best" type="veh_passenger"/>
    <trip id="veh237" depart="92.21" from="22886357#1" to="-646643537" departLane="best" type="veh_passenger"/>
    <trip id="veh238" depart="92.60" from="-465270689" to="632727858" departLane="best" type="veh_passenger"/>
    <trip id="veh239" depart="92.99" from="99449562#2" to="481628925#1" departLane="best" type="veh_passenger"/>
    <trip id="veh240" depart="93.38" from="639902413" to="652437726" departLane="best" type="veh_passenger"/>
    <trip id="veh241" depart="93.77" from="639935831" to="646819617" departLane="best" type="veh_passenger"/>
    <trip id="veh242" depart="94.16" from="75326369#1" to="173767728#1" departLane="best" type="veh_passenger"/>
    <trip id="veh243" depart="94.55" from="-465458236#0" to="115826806#1" departLane="best" type="veh_passenger"/>
    <trip id="veh244" depart="94.94" from="-701832749" to="641531062" departLane="best" type="veh_passenger"/>
    <trip id="veh245" depart="95.33" from="633575697" to="175845928#0" departLane="best" type="veh_passenger"/>
    <trip id="veh246" depart="95.72" from="119941775" to="635731830" departLane="best" type="veh_passenger"/>
    <trip id="veh247" depart="96.10" from="646663519#0" to="-676700632" departLane="best" type="veh_passenger"/>
    <trip id="veh248" depart="96.49" from="656544156" to="75502028#0" departLane="best" type="veh_passenger"/>
    <trip id="veh249" depart="96.88" from="-664074415" to="-632690146#0" departLane="best" type="veh_passenger"/>
    <trip id="veh250" depart="97.27" from="452040416" to="642176965" departLane="best" type="veh_passenger"/>
    <trip id="veh251" depart="97.66" from="754522935#1" to="482514039" departLane="best" type="veh_passenger"/>
    <trip id="veh252" depart="98.05" from="645242038" to="-646279824#0" departLane="best" type="veh_passenger"/>